[root]
type=Root
children=system
eventq_index=0
full_system=false
sim_quantum=0
time_sync_enable=false
time_sync_period=100000000000
time_sync_spin_threshold=100000000

[system]
type=System
children=clk_domain cpu cpu_clk_domain cpu_voltage_domain dvfs_handler l2 mem_ctrls0 mem_ctrls1 membus redirect_paths0 redirect_paths1 redirect_paths2 tol2bus voltage_domain
byte_order=little
cache_line_size=64
eventq_index=0
exit_on_work_items=false
init_param=0
kvm_vm=Null
m5ops_base=4294901760
mem_mode=timing
mem_ranges=0:68719476736
memories=system.mem_ctrls0.dram system.mem_ctrls1.dram
mmap_using_noreserve=true
multi_thread=true
num_work_ids=16
readfile=
redirect_paths=system.redirect_paths0 system.redirect_paths1 system.redirect_paths2
shared_backstore=
symbolfile=
thermal_components=
thermal_model=Null
work_begin_ckpt_count=0
work_begin_cpu_id_exit=-1
work_begin_exit_count=0
work_cpus_ckpt_count=0
work_end_ckpt_count=0
work_end_exit_count=0
work_item_id=-1
workload=Null
system_port=system.membus.cpu_side_ports[0]

[system.clk_domain]
type=SrcClockDomain
clock=1000
domain_id=-1
eventq_index=0
init_perf_level=0
voltage_domain=system.voltage_domain

[system.cpu]
type=DerivO3CPU
children=branchPred dcache dtb dtb_walker_cache fuPool icache interrupts0 interrupts1 isa0 isa1 itb itb_walker_cache power_state smtFloatRegPolicy smtIQPolicy smtIntRegPolicy smtLQPolicy smtROBPolicy smtSQPolicy smtVecRegPolicy tracer workload0 workload1
LFSTSize=1024
LQEntries=72
LSQCheckLoads=true
LSQDepCheckShift=0
SQEntries=56
SSITSize=1024
activity=0
backComSize=5
branchPred=system.cpu.branchPred
cacheLoadPorts=200
cacheStorePorts=200
checker=Null
clk_domain=system.cpu_clk_domain
commitToDecodeDelay=1
commitToFetchDelay=1
commitToIEWDelay=1
commitToRenameDelay=1
commitWidth=8
cpu_id=0
decodeToFetchDelay=1
decodeToRenameDelay=2
decodeWidth=5
dispatchWidth=8
do_checkpoint_insts=true
do_statistics_insts=true
dtb=system.cpu.dtb
eventq_index=0
fetchBufferSize=16
fetchQueueSize=32
fetchToDecodeDelay=3
fetchTrapLatency=1
fetchWidth=8
forwardComSize=5
fuPool=system.cpu.fuPool
function_trace=false
function_trace_start=0
iewToCommitDelay=1
iewToDecodeDelay=1
iewToFetchDelay=1
iewToRenameDelay=1
interrupts=system.cpu.interrupts0 system.cpu.interrupts1
isa=system.cpu.isa0 system.cpu.isa1
issueToExecuteDelay=1
issueWidth=8
itb=system.cpu.itb
max_insts_all_threads=0
max_insts_any_thread=100000000
max_insts_thread=0
needsTSO=true
numIQEntries=97
numPhysCCRegs=1090
numPhysFloatRegs=220
numPhysIntRegs=218
numPhysVecPredRegs=32
numPhysVecRegs=168
numROBEntries=224
numRobs=1
numThreads=2
power_gating_on_idle=false
power_model=
power_state=system.cpu.power_state
progress_interval=0
pwr_gating_latency=300
renameToDecodeDelay=1
renameToFetchDelay=1
renameToIEWDelay=1
renameToROBDelay=1
renameWidth=8
simpoint_start_insts=
smtCommitInterval=1000
smtCommitLimit=8
smtCommitMult=1.2
smtCommitPolicy=RoundRobin
smtFetchInterval=100000
smtFetchLimit=8
smtFetchMult=1.2
smtFetchPolicy=SingleThread
smtFloatRegPolicy=system.cpu.smtFloatRegPolicy
smtIQPolicy=system.cpu.smtIQPolicy
smtIQThreshold=100
smtIntRegPolicy=system.cpu.smtIntRegPolicy
smtIssueInterval=100000
smtIssueLimit=8
smtIssueMult=1.2
smtIssuePolicy=SingleThread
smtLQPolicy=system.cpu.smtLQPolicy
smtLSQPolicy=Dynamic
smtLSQThreshold=100
smtMainThread=0
smtNumFetchingThreads=1
smtROBPolicy=system.cpu.smtROBPolicy
smtROBThreshold=100
smtSQPolicy=system.cpu.smtSQPolicy
smtVecRegPolicy=system.cpu.smtVecRegPolicy
socket_id=0
squashWidth=8
store_set_clear_period=250000
switched_out=false
syscallRetryLatency=10000
system=system
tracer=system.cpu.tracer
trapLatency=13
wait_for_remote_gdb=false
wbWidth=8
workload=system.cpu.workload0 system.cpu.workload1
dcache_port=system.cpu.dcache.cpu_side
icache_port=system.cpu.icache.cpu_side

[system.cpu.branchPred]
type=BiModeBP
children=indirectBranchPred power_state smtPolicy
BTBEntries=512
BTBTagSize=18
RASSize=16
choiceCtrBits=2
choicePredictorSize=8192
clk_domain=system.cpu_clk_domain
eventq_index=0
globalCtrBits=2
globalPredictorSize=8192
indirectBranchPred=system.cpu.branchPred.indirectBranchPred
instShiftAmt=2
numThreads=2
power_model=
power_state=system.cpu.branchPred.power_state
smtPolicy=system.cpu.branchPred.smtPolicy

[system.cpu.branchPred.indirectBranchPred]
type=SimpleIndirectPredictor
eventq_index=0
indirectGHRBits=13
indirectHashGHR=true
indirectHashTargets=true
indirectPathLength=3
indirectSets=256
indirectTagSize=16
indirectWays=2
instShiftAmt=2
numThreads=2

[system.cpu.branchPred.power_state]
type=PowerState
clk_gate_bins=20
clk_gate_max=1000000000000
clk_gate_min=1000
default_state=UNDEFINED
eventq_index=0
leaders=
possible_states=

[system.cpu.branchPred.smtPolicy]
type=DynamicSMTPolicy
eventq_index=0
numThreads=2
size=32

[system.cpu.dcache]
type=Cache
children=power_state replacement_policy tags
addr_ranges=0:18446744073709551615
assoc=8
clk_domain=system.cpu_clk_domain
clusivity=mostly_incl
compressor=Null
data_latency=2
dead_threshold=5000
demand_mshr_reserve=1
eliminate_deads=true
eventq_index=0
is_read_only=false
max_miss_count=0
mshrs=16
power_model=
power_state=system.cpu.dcache.power_state
prefetch_on_access=false
prefetcher=Null
replacement_policy=system.cpu.dcache.replacement_policy
response_latency=2
sequential_access=false
size=32768
system=system
tag_latency=2
tags=system.cpu.dcache.tags
tgts_per_mshr=8
warmup_percentage=0
write_allocator=Null
write_buffers=64
writeback_clean=true
cpu_side=system.cpu.dcache_port
mem_side=system.tol2bus.cpu_side_ports[1]

[system.cpu.dcache.power_state]
type=PowerState
clk_gate_bins=20
clk_gate_max=1000000000000
clk_gate_min=1000
default_state=UNDEFINED
eventq_index=0
leaders=
possible_states=

[system.cpu.dcache.replacement_policy]
type=LRURP
eventq_index=0

[system.cpu.dcache.tags]
type=PartitionedSetAssoc
children=indexing_policy power_state smt_policy
assoc=8
block_size=64
clk_domain=system.cpu_clk_domain
entry_size=64
eventq_index=0
indexing_policy=system.cpu.dcache.tags.indexing_policy
numThread=2
power_model=
power_state=system.cpu.dcache.tags.power_state
replacement_policy=system.cpu.dcache.replacement_policy
sequential_access=false
size=32768
smt_policy=system.cpu.dcache.tags.smt_policy
system=system
tag_latency=2
warmup_percentage=0

[system.cpu.dcache.tags.indexing_policy]
type=SetAssociative
assoc=8
entry_size=64
eventq_index=0
size=32768

[system.cpu.dcache.tags.power_state]
type=PowerState
clk_gate_bins=20
clk_gate_max=1000000000000
clk_gate_min=1000
default_state=UNDEFINED
eventq_index=0
leaders=
possible_states=

[system.cpu.dcache.tags.smt_policy]
type=DynamicSMTPolicy
eventq_index=0
numThreads=2
size=32

[system.cpu.dtb]
type=X86TLB
children=smtTLBPolicy walker
eventq_index=0
miss_latency=30
numThreads=2
size=32
smtTLBPolicy=system.cpu.dtb.smtTLBPolicy
system=system
walker=system.cpu.dtb.walker

[system.cpu.dtb.smtTLBPolicy]
type=DynamicSMTPolicy
eventq_index=0
numThreads=2
size=32

[system.cpu.dtb.walker]
type=X86PagetableWalker
children=power_state
clk_domain=system.cpu_clk_domain
eventq_index=0
num_squash_per_cycle=4
power_model=
power_state=system.cpu.dtb.walker.power_state
system=system
port=system.cpu.dtb_walker_cache.cpu_side

[system.cpu.dtb.walker.power_state]
type=PowerState
clk_gate_bins=20
clk_gate_max=1000000000000
clk_gate_min=1000
default_state=UNDEFINED
eventq_index=0
leaders=
possible_states=

[system.cpu.dtb_walker_cache]
type=Cache
children=power_state replacement_policy tags
addr_ranges=0:18446744073709551615
assoc=4
clk_domain=system.cpu_clk_domain
clusivity=mostly_incl
compressor=Null
data_latency=2
dead_threshold=0
demand_mshr_reserve=1
eliminate_deads=false
eventq_index=0
is_read_only=true
max_miss_count=0
mshrs=16
power_model=
power_state=system.cpu.dtb_walker_cache.power_state
prefetch_on_access=false
prefetcher=Null
replacement_policy=system.cpu.dtb_walker_cache.replacement_policy
response_latency=1
sequential_access=false
size=1024
system=system
tag_latency=2
tags=system.cpu.dtb_walker_cache.tags
tgts_per_mshr=8
warmup_percentage=0
write_allocator=Null
write_buffers=64
writeback_clean=true
cpu_side=system.cpu.dtb.walker.port
mem_side=system.tol2bus.cpu_side_ports[3]

[system.cpu.dtb_walker_cache.power_state]
type=PowerState
clk_gate_bins=20
clk_gate_max=1000000000000
clk_gate_min=1000
default_state=UNDEFINED
eventq_index=0
leaders=
possible_states=

[system.cpu.dtb_walker_cache.replacement_policy]
type=LRURP
eventq_index=0

[system.cpu.dtb_walker_cache.tags]
type=BaseSetAssoc
children=indexing_policy power_state
assoc=4
block_size=64
clk_domain=system.cpu_clk_domain
entry_size=64
eventq_index=0
indexing_policy=system.cpu.dtb_walker_cache.tags.indexing_policy
power_model=
power_state=system.cpu.dtb_walker_cache.tags.power_state
replacement_policy=system.cpu.dtb_walker_cache.replacement_policy
sequential_access=false
size=1024
system=system
tag_latency=2
warmup_percentage=0

[system.cpu.dtb_walker_cache.tags.indexing_policy]
type=SetAssociative
assoc=4
entry_size=64
eventq_index=0
size=1024

[system.cpu.dtb_walker_cache.tags.power_state]
type=PowerState
clk_gate_bins=20
clk_gate_max=1000000000000
clk_gate_min=1000
default_state=UNDEFINED
eventq_index=0
leaders=
possible_states=

[system.cpu.fuPool]
type=FUPool
children=FUList0 FUList1 FUList2 FUList3 FUList4 FUList5 FUList6 FUList7 FUList8
FUList=system.cpu.fuPool.FUList0 system.cpu.fuPool.FUList1 system.cpu.fuPool.FUList2 system.cpu.fuPool.FUList3 system.cpu.fuPool.FUList4 system.cpu.fuPool.FUList5 system.cpu.fuPool.FUList6 system.cpu.fuPool.FUList7 system.cpu.fuPool.FUList8
eventq_index=0

[system.cpu.fuPool.FUList0]
type=FUDesc
children=opList
count=1
eventq_index=0
opList=system.cpu.fuPool.FUList0.opList

[system.cpu.fuPool.FUList0.opList]
type=OpDesc
eventq_index=0
opClass=IntAlu
opLat=1
pipelined=true

[system.cpu.fuPool.FUList1]
type=FUDesc
children=opList0 opList1
count=1
eventq_index=0
opList=system.cpu.fuPool.FUList1.opList0 system.cpu.fuPool.FUList1.opList1

[system.cpu.fuPool.FUList1.opList0]
type=OpDesc
eventq_index=0
opClass=IntMult
opLat=4
pipelined=true

[system.cpu.fuPool.FUList1.opList1]
type=OpDesc
eventq_index=0
opClass=IntDiv
opLat=5
pipelined=false

[system.cpu.fuPool.FUList2]
type=FUDesc
children=opList
count=1
eventq_index=0
opList=system.cpu.fuPool.FUList2.opList

[system.cpu.fuPool.FUList2.opList]
type=OpDesc
eventq_index=0
opClass=IntAlu
opLat=1
pipelined=true

[system.cpu.fuPool.FUList3]
type=FUDesc
children=opList
count=1
eventq_index=0
opList=system.cpu.fuPool.FUList3.opList

[system.cpu.fuPool.FUList3.opList]
type=OpDesc
eventq_index=0
opClass=MemRead
opLat=3
pipelined=true

[system.cpu.fuPool.FUList4]
type=FUDesc
children=opList
count=1
eventq_index=0
opList=system.cpu.fuPool.FUList4.opList

[system.cpu.fuPool.FUList4.opList]
type=OpDesc
eventq_index=0
opClass=IntAlu
opLat=1
pipelined=true

[system.cpu.fuPool.FUList5]
type=FUDesc
children=opList00 opList01 opList02 opList03 opList04 opList05 opList06 opList07 opList08 opList09 opList10 opList11 opList12 opList13 opList14 opList15 opList16 opList17 opList18 opList19 opList20 opList21 opList22 opList23 opList24 opList25
count=1
eventq_index=0
opList=system.cpu.fuPool.FUList5.opList00 system.cpu.fuPool.FUList5.opList01 system.cpu.fuPool.FUList5.opList02 system.cpu.fuPool.FUList5.opList03 system.cpu.fuPool.FUList5.opList04 system.cpu.fuPool.FUList5.opList05 system.cpu.fuPool.FUList5.opList06 system.cpu.fuPool.FUList5.opList07 system.cpu.fuPool.FUList5.opList08 system.cpu.fuPool.FUList5.opList09 system.cpu.fuPool.FUList5.opList10 system.cpu.fuPool.FUList5.opList11 system.cpu.fuPool.FUList5.opList12 system.cpu.fuPool.FUList5.opList13 system.cpu.fuPool.FUList5.opList14 system.cpu.fuPool.FUList5.opList15 system.cpu.fuPool.FUList5.opList16 system.cpu.fuPool.FUList5.opList17 system.cpu.fuPool.FUList5.opList18 system.cpu.fuPool.FUList5.opList19 system.cpu.fuPool.FUList5.opList20 system.cpu.fuPool.FUList5.opList21 system.cpu.fuPool.FUList5.opList22 system.cpu.fuPool.FUList5.opList23 system.cpu.fuPool.FUList5.opList24 system.cpu.fuPool.FUList5.opList25

[system.cpu.fuPool.FUList5.opList00]
type=OpDesc
eventq_index=0
opClass=SimdAdd
opLat=1
pipelined=true

[system.cpu.fuPool.FUList5.opList01]
type=OpDesc
eventq_index=0
opClass=SimdAddAcc
opLat=1
pipelined=true

[system.cpu.fuPool.FUList5.opList02]
type=OpDesc
eventq_index=0
opClass=SimdAlu
opLat=1
pipelined=true

[system.cpu.fuPool.FUList5.opList03]
type=OpDesc
eventq_index=0
opClass=SimdCmp
opLat=1
pipelined=true

[system.cpu.fuPool.FUList5.opList04]
type=OpDesc
eventq_index=0
opClass=SimdCvt
opLat=1
pipelined=true

[system.cpu.fuPool.FUList5.opList05]
type=OpDesc
eventq_index=0
opClass=SimdMisc
opLat=3
pipelined=true

[system.cpu.fuPool.FUList5.opList06]
type=OpDesc
eventq_index=0
opClass=SimdMult
opLat=5
pipelined=true

[system.cpu.fuPool.FUList5.opList07]
type=OpDesc
eventq_index=0
opClass=SimdMultAcc
opLat=5
pipelined=true

[system.cpu.fuPool.FUList5.opList08]
type=OpDesc
eventq_index=0
opClass=SimdShift
opLat=4
pipelined=true

[system.cpu.fuPool.FUList5.opList09]
type=OpDesc
eventq_index=0
opClass=SimdShiftAcc
opLat=1
pipelined=true

[system.cpu.fuPool.FUList5.opList10]
type=OpDesc
eventq_index=0
opClass=SimdSqrt
opLat=5
pipelined=true

[system.cpu.fuPool.FUList5.opList11]
type=OpDesc
eventq_index=0
opClass=SimdFloatAdd
opLat=1
pipelined=true

[system.cpu.fuPool.FUList5.opList12]
type=OpDesc
eventq_index=0
opClass=SimdFloatAlu
opLat=1
pipelined=true

[system.cpu.fuPool.FUList5.opList13]
type=OpDesc
eventq_index=0
opClass=SimdFloatCmp
opLat=1
pipelined=true

[system.cpu.fuPool.FUList5.opList14]
type=OpDesc
eventq_index=0
opClass=SimdFloatCvt
opLat=3
pipelined=true

[system.cpu.fuPool.FUList5.opList15]
type=OpDesc
eventq_index=0
opClass=SimdFloatDiv
opLat=3
pipelined=true

[system.cpu.fuPool.FUList5.opList16]
type=OpDesc
eventq_index=0
opClass=SimdFloatMisc
opLat=3
pipelined=true

[system.cpu.fuPool.FUList5.opList17]
type=OpDesc
eventq_index=0
opClass=SimdFloatMult
opLat=3
pipelined=true

[system.cpu.fuPool.FUList5.opList18]
type=OpDesc
eventq_index=0
opClass=SimdFloatMultAcc
opLat=1
pipelined=true

[system.cpu.fuPool.FUList5.opList19]
type=OpDesc
eventq_index=0
opClass=SimdFloatSqrt
opLat=9
pipelined=true

[system.cpu.fuPool.FUList5.opList20]
type=OpDesc
eventq_index=0
opClass=FloatAdd
opLat=3
pipelined=true

[system.cpu.fuPool.FUList5.opList21]
type=OpDesc
eventq_index=0
opClass=FloatCmp
opLat=3
pipelined=true

[system.cpu.fuPool.FUList5.opList22]
type=OpDesc
eventq_index=0
opClass=FloatCvt
opLat=3
pipelined=true

[system.cpu.fuPool.FUList5.opList23]
type=OpDesc
eventq_index=0
opClass=FloatDiv
opLat=9
pipelined=false

[system.cpu.fuPool.FUList5.opList24]
type=OpDesc
eventq_index=0
opClass=FloatSqrt
opLat=33
pipelined=false

[system.cpu.fuPool.FUList5.opList25]
type=OpDesc
eventq_index=0
opClass=FloatMult
opLat=4
pipelined=true

[system.cpu.fuPool.FUList6]
type=FUDesc
children=opList
count=1
eventq_index=0
opList=system.cpu.fuPool.FUList6.opList

[system.cpu.fuPool.FUList6.opList]
type=OpDesc
eventq_index=0
opClass=IntAlu
opLat=1
pipelined=true

[system.cpu.fuPool.FUList7]
type=FUDesc
children=opList00 opList01 opList02 opList03 opList04 opList05 opList06 opList07 opList08 opList09 opList10 opList11 opList12 opList13 opList14 opList15 opList16 opList17 opList18 opList19 opList20 opList21 opList22 opList23 opList24 opList25
count=1
eventq_index=0
opList=system.cpu.fuPool.FUList7.opList00 system.cpu.fuPool.FUList7.opList01 system.cpu.fuPool.FUList7.opList02 system.cpu.fuPool.FUList7.opList03 system.cpu.fuPool.FUList7.opList04 system.cpu.fuPool.FUList7.opList05 system.cpu.fuPool.FUList7.opList06 system.cpu.fuPool.FUList7.opList07 system.cpu.fuPool.FUList7.opList08 system.cpu.fuPool.FUList7.opList09 system.cpu.fuPool.FUList7.opList10 system.cpu.fuPool.FUList7.opList11 system.cpu.fuPool.FUList7.opList12 system.cpu.fuPool.FUList7.opList13 system.cpu.fuPool.FUList7.opList14 system.cpu.fuPool.FUList7.opList15 system.cpu.fuPool.FUList7.opList16 system.cpu.fuPool.FUList7.opList17 system.cpu.fuPool.FUList7.opList18 system.cpu.fuPool.FUList7.opList19 system.cpu.fuPool.FUList7.opList20 system.cpu.fuPool.FUList7.opList21 system.cpu.fuPool.FUList7.opList22 system.cpu.fuPool.FUList7.opList23 system.cpu.fuPool.FUList7.opList24 system.cpu.fuPool.FUList7.opList25

[system.cpu.fuPool.FUList7.opList00]
type=OpDesc
eventq_index=0
opClass=SimdAdd
opLat=1
pipelined=true

[system.cpu.fuPool.FUList7.opList01]
type=OpDesc
eventq_index=0
opClass=SimdAddAcc
opLat=1
pipelined=true

[system.cpu.fuPool.FUList7.opList02]
type=OpDesc
eventq_index=0
opClass=SimdAlu
opLat=1
pipelined=true

[system.cpu.fuPool.FUList7.opList03]
type=OpDesc
eventq_index=0
opClass=SimdCmp
opLat=1
pipelined=true

[system.cpu.fuPool.FUList7.opList04]
type=OpDesc
eventq_index=0
opClass=SimdCvt
opLat=1
pipelined=true

[system.cpu.fuPool.FUList7.opList05]
type=OpDesc
eventq_index=0
opClass=SimdMisc
opLat=3
pipelined=true

[system.cpu.fuPool.FUList7.opList06]
type=OpDesc
eventq_index=0
opClass=SimdMult
opLat=5
pipelined=true

[system.cpu.fuPool.FUList7.opList07]
type=OpDesc
eventq_index=0
opClass=SimdMultAcc
opLat=5
pipelined=true

[system.cpu.fuPool.FUList7.opList08]
type=OpDesc
eventq_index=0
opClass=SimdShift
opLat=4
pipelined=true

[system.cpu.fuPool.FUList7.opList09]
type=OpDesc
eventq_index=0
opClass=SimdShiftAcc
opLat=1
pipelined=true

[system.cpu.fuPool.FUList7.opList10]
type=OpDesc
eventq_index=0
opClass=SimdSqrt
opLat=5
pipelined=true

[system.cpu.fuPool.FUList7.opList11]
type=OpDesc
eventq_index=0
opClass=SimdFloatAdd
opLat=1
pipelined=true

[system.cpu.fuPool.FUList7.opList12]
type=OpDesc
eventq_index=0
opClass=SimdFloatAlu
opLat=1
pipelined=true

[system.cpu.fuPool.FUList7.opList13]
type=OpDesc
eventq_index=0
opClass=SimdFloatCmp
opLat=1
pipelined=true

[system.cpu.fuPool.FUList7.opList14]
type=OpDesc
eventq_index=0
opClass=SimdFloatCvt
opLat=3
pipelined=true

[system.cpu.fuPool.FUList7.opList15]
type=OpDesc
eventq_index=0
opClass=SimdFloatDiv
opLat=3
pipelined=true

[system.cpu.fuPool.FUList7.opList16]
type=OpDesc
eventq_index=0
opClass=SimdFloatMisc
opLat=3
pipelined=true

[system.cpu.fuPool.FUList7.opList17]
type=OpDesc
eventq_index=0
opClass=SimdFloatMult
opLat=3
pipelined=true

[system.cpu.fuPool.FUList7.opList18]
type=OpDesc
eventq_index=0
opClass=SimdFloatMultAcc
opLat=1
pipelined=true

[system.cpu.fuPool.FUList7.opList19]
type=OpDesc
eventq_index=0
opClass=SimdFloatSqrt
opLat=9
pipelined=true

[system.cpu.fuPool.FUList7.opList20]
type=OpDesc
eventq_index=0
opClass=FloatAdd
opLat=3
pipelined=true

[system.cpu.fuPool.FUList7.opList21]
type=OpDesc
eventq_index=0
opClass=FloatCmp
opLat=3
pipelined=true

[system.cpu.fuPool.FUList7.opList22]
type=OpDesc
eventq_index=0
opClass=FloatCvt
opLat=3
pipelined=true

[system.cpu.fuPool.FUList7.opList23]
type=OpDesc
eventq_index=0
opClass=FloatDiv
opLat=9
pipelined=false

[system.cpu.fuPool.FUList7.opList24]
type=OpDesc
eventq_index=0
opClass=FloatSqrt
opLat=33
pipelined=false

[system.cpu.fuPool.FUList7.opList25]
type=OpDesc
eventq_index=0
opClass=FloatMult
opLat=4
pipelined=true

[system.cpu.fuPool.FUList8]
type=FUDesc
children=opList
count=1
eventq_index=0
opList=system.cpu.fuPool.FUList8.opList

[system.cpu.fuPool.FUList8.opList]
type=OpDesc
eventq_index=0
opClass=MemWrite
opLat=2
pipelined=true

[system.cpu.icache]
type=Cache
children=power_state replacement_policy tags
addr_ranges=0:18446744073709551615
assoc=8
clk_domain=system.cpu_clk_domain
clusivity=mostly_incl
compressor=Null
data_latency=1
dead_threshold=5000
demand_mshr_reserve=1
eliminate_deads=false
eventq_index=0
is_read_only=true
max_miss_count=0
mshrs=16
power_model=
power_state=system.cpu.icache.power_state
prefetch_on_access=false
prefetcher=Null
replacement_policy=system.cpu.icache.replacement_policy
response_latency=1
sequential_access=false
size=32768
system=system
tag_latency=1
tags=system.cpu.icache.tags
tgts_per_mshr=8
warmup_percentage=0
write_allocator=Null
write_buffers=64
writeback_clean=true
cpu_side=system.cpu.icache_port
mem_side=system.tol2bus.cpu_side_ports[0]

[system.cpu.icache.power_state]
type=PowerState
clk_gate_bins=20
clk_gate_max=1000000000000
clk_gate_min=1000
default_state=UNDEFINED
eventq_index=0
leaders=
possible_states=

[system.cpu.icache.replacement_policy]
type=LRURP
eventq_index=0

[system.cpu.icache.tags]
type=PartitionedSetAssoc
children=indexing_policy power_state smt_policy
assoc=8
block_size=64
clk_domain=system.cpu_clk_domain
entry_size=64
eventq_index=0
indexing_policy=system.cpu.icache.tags.indexing_policy
numThread=2
power_model=
power_state=system.cpu.icache.tags.power_state
replacement_policy=system.cpu.icache.replacement_policy
sequential_access=false
size=32768
smt_policy=system.cpu.dcache.tags.smt_policy
system=system
tag_latency=1
warmup_percentage=0

[system.cpu.icache.tags.indexing_policy]
type=SetAssociative
assoc=8
entry_size=64
eventq_index=0
size=32768

[system.cpu.icache.tags.power_state]
type=PowerState
clk_gate_bins=20
clk_gate_max=1000000000000
clk_gate_min=1000
default_state=UNDEFINED
eventq_index=0
leaders=
possible_states=

[system.cpu.icache.tags.smt_policy]
type=PartitionedSMTPolicy
eventq_index=0
numThreads=2
size=32

[system.cpu.interrupts0]
type=X86LocalApic
children=clk_domain
clk_domain=system.cpu.interrupts0.clk_domain
eventq_index=0
int_latency=1000
pio_latency=100000
system=system
int_requestor=system.membus.cpu_side_ports[2]
int_responder=system.membus.mem_side_ports[1]
pio=system.membus.mem_side_ports[0]

[system.cpu.interrupts0.clk_domain]
type=DerivedClockDomain
clk_divider=16
clk_domain=system.cpu_clk_domain
eventq_index=0

[system.cpu.interrupts1]
type=X86LocalApic
children=clk_domain
clk_domain=system.cpu.interrupts1.clk_domain
eventq_index=0
int_latency=1000
pio_latency=100000
system=system
int_requestor=system.membus.cpu_side_ports[3]
int_responder=system.membus.mem_side_ports[3]
pio=system.membus.mem_side_ports[2]

[system.cpu.interrupts1.clk_domain]
type=DerivedClockDomain
clk_divider=16
clk_domain=system.cpu_clk_domain
eventq_index=0

[system.cpu.isa0]
type=X86ISA
eventq_index=0

[system.cpu.isa1]
type=X86ISA
eventq_index=0

[system.cpu.itb]
type=X86TLB
children=smtTLBPolicy walker
eventq_index=0
miss_latency=30
numThreads=2
size=32
smtTLBPolicy=system.cpu.itb.smtTLBPolicy
system=system
walker=system.cpu.itb.walker

[system.cpu.itb.smtTLBPolicy]
type=DynamicSMTPolicy
eventq_index=0
numThreads=2
size=32

[system.cpu.itb.walker]
type=X86PagetableWalker
children=power_state
clk_domain=system.cpu_clk_domain
eventq_index=0
num_squash_per_cycle=4
power_model=
power_state=system.cpu.itb.walker.power_state
system=system
port=system.cpu.itb_walker_cache.cpu_side

[system.cpu.itb.walker.power_state]
type=PowerState
clk_gate_bins=20
clk_gate_max=1000000000000
clk_gate_min=1000
default_state=UNDEFINED
eventq_index=0
leaders=
possible_states=

[system.cpu.itb_walker_cache]
type=Cache
children=power_state replacement_policy tags
addr_ranges=0:18446744073709551615
assoc=4
clk_domain=system.cpu_clk_domain
clusivity=mostly_incl
compressor=Null
data_latency=2
dead_threshold=0
demand_mshr_reserve=1
eliminate_deads=false
eventq_index=0
is_read_only=true
max_miss_count=0
mshrs=16
power_model=
power_state=system.cpu.itb_walker_cache.power_state
prefetch_on_access=false
prefetcher=Null
replacement_policy=system.cpu.itb_walker_cache.replacement_policy
response_latency=1
sequential_access=false
size=1024
system=system
tag_latency=2
tags=system.cpu.itb_walker_cache.tags
tgts_per_mshr=8
warmup_percentage=0
write_allocator=Null
write_buffers=64
writeback_clean=true
cpu_side=system.cpu.itb.walker.port
mem_side=system.tol2bus.cpu_side_ports[2]

[system.cpu.itb_walker_cache.power_state]
type=PowerState
clk_gate_bins=20
clk_gate_max=1000000000000
clk_gate_min=1000
default_state=UNDEFINED
eventq_index=0
leaders=
possible_states=

[system.cpu.itb_walker_cache.replacement_policy]
type=LRURP
eventq_index=0

[system.cpu.itb_walker_cache.tags]
type=BaseSetAssoc
children=indexing_policy power_state
assoc=4
block_size=64
clk_domain=system.cpu_clk_domain
entry_size=64
eventq_index=0
indexing_policy=system.cpu.itb_walker_cache.tags.indexing_policy
power_model=
power_state=system.cpu.itb_walker_cache.tags.power_state
replacement_policy=system.cpu.itb_walker_cache.replacement_policy
sequential_access=false
size=1024
system=system
tag_latency=2
warmup_percentage=0

[system.cpu.itb_walker_cache.tags.indexing_policy]
type=SetAssociative
assoc=4
entry_size=64
eventq_index=0
size=1024

[system.cpu.itb_walker_cache.tags.power_state]
type=PowerState
clk_gate_bins=20
clk_gate_max=1000000000000
clk_gate_min=1000
default_state=UNDEFINED
eventq_index=0
leaders=
possible_states=

[system.cpu.power_state]
type=PowerState
clk_gate_bins=20
clk_gate_max=1000000000000
clk_gate_min=1000
default_state=UNDEFINED
eventq_index=0
leaders=
possible_states=ON CLK_GATED OFF

[system.cpu.smtFloatRegPolicy]
type=DynamicSMTPolicy
eventq_index=0
numThreads=2
size=32

[system.cpu.smtIQPolicy]
type=DynamicSMTPolicy
eventq_index=0
numThreads=2
size=32

[system.cpu.smtIntRegPolicy]
type=DynamicSMTPolicy
eventq_index=0
numThreads=2
size=32

[system.cpu.smtLQPolicy]
type=DynamicSMTPolicy
eventq_index=0
numThreads=2
size=32

[system.cpu.smtROBPolicy]
type=DynamicSMTPolicy
eventq_index=0
numThreads=2
size=32

[system.cpu.smtSQPolicy]
type=DynamicSMTPolicy
eventq_index=0
numThreads=2
size=32

[system.cpu.smtVecRegPolicy]
type=DynamicSMTPolicy
eventq_index=0
numThreads=2
size=32

[system.cpu.tracer]
type=ExeTracer
eventq_index=0

[system.cpu.workload0]
type=Process
cmd=~/spec2017/benchspec/CPU/605.mcf_s/run/run_base_test_mytest-m64.0000/mcf_s_base.mytest-m64 ~/spec2017/benchspec/CPU/605.mcf_s/run/run_base_test_mytest-m64.0000/inp.in thread0
cwd=/root/SecSMT_Artifact/mitigations
drivers=
egid=100
env=
errout=cerr
euid=100
eventq_index=0
executable=~/spec2017/benchspec/CPU/605.mcf_s/run/run_base_test_mytest-m64.0000/mcf_s_base.mytest-m64 ~/spec2017/benchspec/CPU/605.mcf_s/run/run_base_test_mytest-m64.0000/inp.in
gid=100
input=cin
kvmInSE=false
maxStackSize=67108864
output=cout
pgid=100
pid=100
ppid=0
release=5.1.0
simpoint=0
system=system
uid=100
useArchPT=false

[system.cpu.workload1]
type=Process
cmd=~/spec2017/benchspec/CPU/605.mcf_s/run/run_base_test_mytest-m64.0000/mcf_s_base.mytest-m64 ~/spec2017/benchspec/CPU/605.mcf_s/run/run_base_test_mytest-m64.0000/inp.in thread1
cwd=/root/SecSMT_Artifact/mitigations
drivers=
egid=100
env=
errout=cerr
euid=100
eventq_index=0
executable=~/spec2017/benchspec/CPU/605.mcf_s/run/run_base_test_mytest-m64.0000/mcf_s_base.mytest-m64 ~/spec2017/benchspec/CPU/605.mcf_s/run/run_base_test_mytest-m64.0000/inp.in
gid=100
input=cin
kvmInSE=false
maxStackSize=67108864
output=cout
pgid=100
pid=101
ppid=0
release=5.1.0
simpoint=0
system=system
uid=100
useArchPT=false

[system.cpu_clk_domain]
type=SrcClockDomain
clock=500
domain_id=-1
eventq_index=0
init_perf_level=0
voltage_domain=system.cpu_voltage_domain

[system.cpu_voltage_domain]
type=VoltageDomain
eventq_index=0
voltage=1.0

[system.dvfs_handler]
type=DVFSHandler
domains=
enable=false
eventq_index=0
sys_clk_domain=system.clk_domain
transition_latency=100000000

[system.l2]
type=Cache
children=power_state prefetcher replacement_policy tags
addr_ranges=0:18446744073709551615
assoc=16
clk_domain=system.cpu_clk_domain
clusivity=mostly_incl
compressor=Null
data_latency=12
dead_threshold=0
demand_mshr_reserve=1
eliminate_deads=false
eventq_index=0
is_read_only=false
max_miss_count=0
mshrs=20
power_model=
power_state=system.l2.power_state
prefetch_on_access=false
prefetcher=system.l2.prefetcher
replacement_policy=system.l2.replacement_policy
response_latency=12
sequential_access=false
size=4194304
system=system
tag_latency=12
tags=system.l2.tags
tgts_per_mshr=8
warmup_percentage=0
write_allocator=Null
write_buffers=64
writeback_clean=false
cpu_side=system.tol2bus.mem_side_ports[0]
mem_side=system.membus.cpu_side_ports[1]

[system.l2.power_state]
type=PowerState
clk_gate_bins=20
clk_gate_max=1000000000000
clk_gate_min=1000
default_state=UNDEFINED
eventq_index=0
leaders=
possible_states=

[system.l2.prefetcher]
type=StridePrefetcher
children=power_state table_indexing_policy table_replacement_policy
block_size=64
cache_snoop=false
clk_domain=system.cpu_clk_domain
confidence_counter_bits=3
confidence_threshold=50
degree=8
eventq_index=0
initial_confidence=4
latency=1
max_prefetch_requests_with_pending_translation=32
on_data=true
on_inst=false
on_miss=false
on_read=true
on_write=true
power_model=
power_state=system.l2.prefetcher.power_state
prefetch_on_access=false
queue_filter=true
queue_size=32
queue_squash=true
sys=system
table_assoc=4
table_entries=64
table_indexing_policy=system.l2.prefetcher.table_indexing_policy
table_replacement_policy=system.l2.prefetcher.table_replacement_policy
tag_prefetch=true
throttle_control_percentage=0
use_requestor_id=true
use_virtual_addresses=false

[system.l2.prefetcher.power_state]
type=PowerState
clk_gate_bins=20
clk_gate_max=1000000000000
clk_gate_min=1000
default_state=UNDEFINED
eventq_index=0
leaders=
possible_states=

[system.l2.prefetcher.table_indexing_policy]
type=StridePrefetcherHashedSetAssociative
assoc=4
entry_size=1
eventq_index=0
size=64

[system.l2.prefetcher.table_replacement_policy]
type=RandomRP
eventq_index=0

[system.l2.replacement_policy]
type=RandomRP
eventq_index=0

[system.l2.tags]
type=PartitionedSetAssoc
children=indexing_policy power_state smt_policy
assoc=16
block_size=64
clk_domain=system.cpu_clk_domain
entry_size=64
eventq_index=0
indexing_policy=system.l2.tags.indexing_policy
numThread=2
power_model=
power_state=system.l2.tags.power_state
replacement_policy=system.l2.replacement_policy
sequential_access=false
size=4194304
smt_policy=system.l2.tags.smt_policy
system=system
tag_latency=12
warmup_percentage=0

[system.l2.tags.indexing_policy]
type=SetAssociative
assoc=16
entry_size=64
eventq_index=0
size=4194304

[system.l2.tags.power_state]
type=PowerState
clk_gate_bins=20
clk_gate_max=1000000000000